14
s0.log	Energy: -387631.7003425
N          0.91040       -0.67010       -0.97224
O         -0.51410       -0.34936       -0.63350
N         -0.96540       -0.53512        0.74384
O         -1.88248        0.20455        0.94837
O         -0.44961       -1.36546        1.41408
O          1.18336       -0.07487       -1.96513
O          1.50013       -1.43786       -0.29625
H          0.59892        2.03526        0.47849
H          1.68560        1.67842        1.55750
O          1.09923        1.29765        0.90085
H         -0.83300        3.85796       -0.54454
H         -0.41479        2.61039       -1.52507
N         -0.63806        2.86346       -0.56794
H         -1.48748        2.36743       -0.31507
