10
s0.log	Energy: -352168.1346527
N          0.98907       -1.03416       -0.25500
O         -0.31712       -0.60857       -0.77087
N         -1.17107        0.22704        0.09795
O         -1.85967        0.92189       -0.57838
O         -1.11334        0.04456        1.27009
O          1.49922       -1.74396       -1.06491
O          1.35137       -0.63570        0.80309
O          0.96302        1.96506       -0.31975
H          1.50993        2.31688        0.38849
H          0.76232        2.70918       -0.89459
