10
s0.log	Energy: -352142.6792618
N         -0.48158        0.59314       -0.12781
O         -2.49680        1.20889       -1.02340
N         -3.52990        1.15571       -0.19212
O         -4.26734        2.12245       -0.15495
O         -3.64578        0.13554        0.46672
O          0.02968        0.10117       -1.04713
O         -0.75295        0.47246        0.98724
O         -0.60172        2.47616       -0.44390
H         -0.08148        2.69555       -1.23164
H         -1.59926        2.20804       -0.76831
