11
s0.log	Energy: -339710.0439057
N          1.01881        2.46056        1.37928
H          1.66503        2.63561        2.14175
H          0.13106        2.87925        1.63630
H          1.36446        2.96699        0.57087
N          0.64263       -0.22792        0.71393
O          1.73845       -0.36145        0.29493
O          0.09745       -0.48680        1.72874
O         -0.29456        0.46717       -0.29823
N         -0.93143       -0.49833       -1.10719
O         -1.66544        0.01184       -1.90227
O         -0.67009       -1.65387       -0.90643
