11
s0.log	Energy: -339702.2124181
N         31.16456       27.29628      -20.07694
H         30.17329       27.04746      -20.14071
H         31.51761       27.67452      -20.94809
H         31.37631       27.89535      -19.28699
N         31.86928       25.38036      -19.89203
O         32.95096       25.38409      -20.34630
O         31.30157       24.95726      -18.95721
O         30.82531       24.95900      -21.48661
N         29.52114       24.91841      -21.38037
O         28.98717       25.61161      -20.50618
O         28.92490       24.21258      -22.16269
