13
s0.log	Energy: -400073.3081389
N          1.47993       -0.44456        0.24252
O         -0.37390       -0.36914       -0.96226
N         -1.36932       -0.69590       -0.23025
O         -2.24708        0.18129       -0.02852
O         -1.43108       -1.80749        0.26702
O          2.18397       -0.99241       -0.50143
O          1.05010       -0.48622        1.32053
H          0.53502        1.74978       -0.01265
H          1.52841        1.29021       -1.20524
H         -0.93734        2.70121        0.99447
H         -1.41233        1.54515        0.00526
O         -0.72860        2.27100        0.15977
O          1.51159        1.34965       -0.23712
