14
s0.log	Energy: -387627.3068330
N          1.14658       -0.87675       -0.15151
O         -0.25437       -0.28335       -0.54851
N         -1.31343       -0.74587        0.23188
O         -2.23524        0.03449        0.23692
O         -1.22151       -1.82396        0.74474
O          1.76038       -1.09155       -1.13083
O          1.32599       -0.96906        1.00723
H         -1.59935        3.44996        0.19217
H         -1.53826        1.96114       -0.19331
O         -1.03796        2.78679       -0.21733
N          1.86907        1.82459       -0.15946
H          2.34317        2.12591       -1.00443
H          2.41662        2.16884        0.62221
H          0.96772        2.30125       -0.13538
