14
s0.log	Energy: -387622.5681307
N          1.40401       -0.69799       -0.00481
O         -0.30529       -0.30484       -0.78702
N         -1.31494       -0.73737       -0.06963
O         -2.30829       -0.00776       -0.06779
O         -1.21254       -1.78930        0.52831
O          2.00579       -1.24418       -0.85000
O          1.27619       -0.73612        1.15955
H         -1.33791        3.00532        0.75834
H         -1.51234        1.73024       -0.10124
O         -0.91421        2.47926        0.07562
N          1.66980        1.34246       -0.42127
H          1.76574        1.41931       -1.42785
H          2.49302        1.70891        0.04469
H          0.80824        1.81826       -0.11861
