11
s0.log	Energy: -339710.0439069
N          1.01881        2.46063        1.37931
H          1.66470        2.63541        2.14214
H          0.13103        2.87952        1.63591
H          1.36500        2.96705        0.57113
N          0.64266       -0.22788        0.71379
O          1.73847       -0.36132        0.29472
O          0.09758       -0.48680        1.72864
O         -0.29465        0.46715       -0.29828
N         -0.93152       -0.49843       -1.10714
O         -1.66563        0.01165       -1.90218
O         -0.67009       -1.65395       -0.90635
