11
s0.log	Energy: -339695.2526810
N          0.74800        1.79284        1.09884
H          0.16930        1.89508        1.92705
H          0.20648        1.80092        0.21796
H          1.55682        2.40691        1.09668
N          1.26381       -0.00099        0.89430
O          2.31411       -0.01716        0.36760
O          0.61514       -0.66194        1.61098
O         -0.00499        0.38322       -0.84409
N         -1.13525       -0.26309       -0.93350
O         -2.04157        0.27135       -1.55497
O         -1.20886       -1.35585       -0.38184
